Version 4
SHEET 1 880 680
WIRE 32 -128 -112 -128
WIRE 160 -128 112 -128
WIRE 240 -128 160 -128
WIRE 336 -128 336 -144
WIRE 336 -128 304 -128
WIRE 464 -128 336 -128
WIRE 592 -128 464 -128
WIRE 336 -112 336 -128
WIRE -112 -32 -112 -48
WIRE -112 -32 -144 -32
WIRE 160 -32 -112 -32
WIRE 336 -32 336 -48
WIRE 336 -32 160 -32
WIRE 464 -32 464 -48
WIRE 464 -32 336 -32
WIRE 592 -32 592 -48
WIRE 624 -32 592 -32
WIRE -144 -16 -144 -32
WIRE 112 -16 112 -48
WIRE 112 -16 -112 -16
WIRE 592 -16 592 -32
WIRE -112 0 -112 -16
WIRE 464 64 464 -32
WIRE 592 64 464 64
WIRE -112 144 -112 80
WIRE -48 144 -112 144
WIRE -48 160 -48 144
FLAG -48 160 0
FLAG 336 -144 Vout
FLAG -144 -16 0
FLAG 624 -32 Vref
SYMBOL ind 16 -112 R270
WINDOW 0 32 56 VTop 2
WINDOW 3 0 55 VBottom 2
SYMATTR InstName L1
SYMATTR Value 0.028402
SYMATTR SpiceLine Ipk=0.03 Rser=50 Rpar=330856 Cpar=2.679p
SYMBOL nmos 112 -128 R0
SYMATTR InstName M1
SYMATTR Value BSZ035N03LS
SYMBOL voltage -112 -144 R0
WINDOW 0 -63 16 Left 2
WINDOW 3 -63 96 Left 2
WINDOW 123 0 0 Left 0
WINDOW 39 0 0 Left 0
SYMATTR InstName V1
SYMATTR Value 12
SYMBOL diode 240 -112 R270
WINDOW 0 32 32 VTop 2
WINDOW 3 0 32 VBottom 2
SYMATTR InstName D1
SYMBOL polcap 320 -112 R0
WINDOW 0 31 5 Left 2
SYMATTR InstName C1
SYMATTR Value 2200µC
SYMBOL voltage -112 -16 R0
WINDOW 3 24 96 Invisible 2
WINDOW 123 0 0 Left 0
WINDOW 39 0 0 Left 0
SYMATTR InstName V2
SYMATTR Value PULSE(0 5 0 1u 1u 0.286m 1m)
SYMBOL res 448 -144 R0
SYMATTR InstName R1
SYMATTR Value 470
SYMBOL res 576 -144 R0
SYMATTR InstName R2
SYMATTR Value 10000
SYMBOL res 576 -32 R0
SYMATTR InstName R3
SYMATTR Value 3300
TEXT -176 184 Left 2 !.tran 3
TEXT -448 -160 Left 2 ;Duty Cycle\n-----------------\n13V = 28.60%\n14V = 37.35%
